<?xml version="1.0" encoding="UTF-8"?>
<!DOCTYPE network SYSTEM "http://www.matsim.org/files/dtd/network_v2.dtd">
<network name="test-scenario-uam">

	<attributes>
		<attribute name="coordinateReferenceSystem" class="java.lang.String" >Atlantis</attribute>
		<attribute name="uamDetourFactor" class="java.lang.Double" >1.0</attribute>
		<attribute name="uamMaxLinkFreeSpeed" class="java.lang.Double" >35.0</attribute>
	</attributes>
<!-- ====================================================================== -->

	<nodes>
		<node id="00" x="0.0" y="0.0" >
		</node>
		<node id="01" x="10.0" y="0.0" >
		</node>
		<node id="02" x="5010.0" y="0.0" >
		</node>
		<node id="03" x="5020.0" y="0.0" >
		</node>
		<node id="04A" x="6020.0" y="500.0" >
		</node>
		<node id="04B" x="6020.0" y="-500.0" >
		</node>
		<node id="06A" x="14020.0" y="500.0" >
		</node>
		<node id="06B" x="14020.0" y="-500.0" >
		</node>
		<node id="07" x="15020.0" y="0.0" >
		</node>
		<node id="08" x="15030.0" y="0.0" >
		</node>
		<node id="09" x="20030.0" y="0.0" >
		</node>
		<node id="10" x="20040.0" y="0.0" >
		</node>
		<node id="uam_st_A_fa" x="6020.0" y="500.0" >
		</node>
		<node id="uam_st_A_ga" x="6020.0" y="500.0" >
		</node>
		<node id="uam_st_B_fa" x="6020.0" y="-500.0" >
		</node>
		<node id="uam_st_B_ga" x="6020.0" y="-500.0" >
		</node>
		<node id="uam_st_C_fa" x="14020.0" y="500.0" >
		</node>
		<node id="uam_st_C_ga" x="14020.0" y="500.0" >
		</node>
		<node id="uam_st_D_fa" x="14020.0" y="-500.0" >
		</node>
		<node id="uam_st_D_ga" x="14020.0" y="-500.0" >
		</node>
		<node id="uam_wp_0_fl" x="6020.0" y="500.0" >
		</node>
		<node id="uam_wp_1_fl" x="6020.0" y="-500.0" >
		</node>
		<node id="uam_wp_2_fl" x="7515.0" y="250.0" >
		</node>
		<node id="uam_wp_3_fl" x="12525.0" y="-250.0" >
		</node>
		<node id="uam_wp_4_fl" x="14020.0" y="500.0" >
		</node>
		<node id="uam_wp_5_fl" x="14020.0" y="-500.0" >
		</node>
	</nodes>

<!-- ====================================================================== -->

	<links capperiod="01:00:00" effectivecellsize="7.5" effectivelanewidth="3.75">
		<link id="0001" from="00" to="01" length="10.0" freespeed="16.7" capacity="60.0" permlanes="1.0" oneway="1" modes="car" >
		</link>
		<link id="0100" from="01" to="00" length="10.0" freespeed="16.7" capacity="60.0" permlanes="1.0" oneway="1" modes="car" >
		</link>
		<link id="0102" from="01" to="02" length="5000.0" freespeed="16.7" capacity="60.0" permlanes="1.0" oneway="1" modes="car" >
		</link>
		<link id="0201" from="02" to="01" length="5000.0" freespeed="16.7" capacity="60.0" permlanes="1.0" oneway="1" modes="car" >
		</link>
		<link id="0203" from="02" to="03" length="10.0" freespeed="16.7" capacity="60.0" permlanes="1.0" oneway="1" modes="car" >
		</link>
		<link id="0302" from="03" to="02" length="10.0" freespeed="16.7" capacity="60.0" permlanes="1.0" oneway="1" modes="car" >
		</link>
		<link id="0304A" from="03" to="04A" length="1000.0" freespeed="16.7" capacity="60.0" permlanes="1.0" oneway="1" modes="car" >
		</link>
		<link id="0304B" from="03" to="04B" length="1000.0" freespeed="16.7" capacity="60.0" permlanes="1.0" oneway="1" modes="car" >
		</link>
		<link id="0307" from="07" to="03" length="10000.0" freespeed="16.7" capacity="5.0" permlanes="1.0" oneway="1" modes="car" >
		</link>
		<link id="04A03" from="04A" to="03" length="1000.0" freespeed="16.7" capacity="60.0" permlanes="1.0" oneway="1" modes="car" >
		</link>
		<link id="04B03" from="04B" to="03" length="1000.0" freespeed="16.7" capacity="60.0" permlanes="1.0" oneway="1" modes="car" >
		</link>
		<link id="06A07" from="06A" to="07" length="1000.0" freespeed="16.7" capacity="60.0" permlanes="1.0" oneway="1" modes="car" >
		</link>
		<link id="06B07" from="06B" to="07" length="1000.0" freespeed="16.7" capacity="60.0" permlanes="1.0" oneway="1" modes="car" >
		</link>
		<link id="0703" from="03" to="07" length="10000.0" freespeed="16.7" capacity="5.0" permlanes="1.0" oneway="1" modes="car" >
		</link>
		<link id="0706A" from="07" to="06A" length="1000.0" freespeed="16.7" capacity="60.0" permlanes="1.0" oneway="1" modes="car" >
		</link>
		<link id="0706B" from="07" to="06B" length="1000.0" freespeed="16.7" capacity="60.0" permlanes="1.0" oneway="1" modes="car" >
		</link>
		<link id="0708" from="07" to="08" length="10.0" freespeed="16.7" capacity="60.0" permlanes="1.0" oneway="1" modes="car" >
		</link>
		<link id="0807" from="08" to="07" length="10.0" freespeed="16.7" capacity="60.0" permlanes="1.0" oneway="1" modes="car" >
		</link>
		<link id="0809" from="08" to="09" length="5000.0" freespeed="16.7" capacity="60.0" permlanes="1.0" oneway="1" modes="car" >
		</link>
		<link id="0908" from="09" to="08" length="5000.0" freespeed="16.7" capacity="60.0" permlanes="1.0" oneway="1" modes="car" >
		</link>
		<link id="0910" from="09" to="10" length="10.0" freespeed="16.7" capacity="60.0" permlanes="1.0" oneway="1" modes="car" >
		</link>
		<link id="1009" from="10" to="09" length="10.0" freespeed="16.7" capacity="60.0" permlanes="1.0" oneway="1" modes="car" >
		</link>
		<link id="uam_gl-04A-uam_st_A_ga" from="04A" to="uam_st_A_ga" length="1.0" freespeed="35.0" capacity="999.0" permlanes="1.0" oneway="1" modes="car" >
		</link>
		<link id="uam_gl-04B-uam_st_B_ga" from="04B" to="uam_st_B_ga" length="1.0" freespeed="35.0" capacity="999.0" permlanes="1.0" oneway="1" modes="car" >
		</link>
		<link id="uam_gl-06A-uam_st_C_ga" from="06A" to="uam_st_C_ga" length="1.0" freespeed="35.0" capacity="999.0" permlanes="1.0" oneway="1" modes="car" >
		</link>
		<link id="uam_gl-06B-uam_st_D_ga" from="06B" to="uam_st_D_ga" length="1.0" freespeed="35.0" capacity="999.0" permlanes="1.0" oneway="1" modes="car" >
		</link>
		<link id="uam_gl-uam_st_A_ga-04A" from="uam_st_A_ga" to="04A" length="1.0" freespeed="35.0" capacity="999.0" permlanes="1.0" oneway="1" modes="car" >
		</link>
		<link id="uam_gl-uam_st_B_ga-04B" from="uam_st_B_ga" to="04B" length="1.0" freespeed="35.0" capacity="999.0" permlanes="1.0" oneway="1" modes="car" >
		</link>
		<link id="uam_gl-uam_st_C_ga-06A" from="uam_st_C_ga" to="06A" length="1.0" freespeed="35.0" capacity="999.0" permlanes="1.0" oneway="1" modes="car" >
		</link>
		<link id="uam_gl-uam_st_D_ga-06B" from="uam_st_D_ga" to="06B" length="1.0" freespeed="35.0" capacity="999.0" permlanes="1.0" oneway="1" modes="car" >
		</link>
		<link id="uam_hl-uam_wp_0_fl-uam_wp_2_fl" from="uam_wp_0_fl" to="uam_wp_2_fl" length="1515.7588858390375" freespeed="35.0" capacity="999.0" permlanes="1.0" oneway="1" modes="uam" >
			<attributes>
				<attribute name="type" class="java.lang.String" >uam_horizontal</attribute>
			</attributes>
		</link>
		<link id="uam_hl-uam_wp_1_fl-uam_wp_2_fl" from="uam_wp_1_fl" to="uam_wp_2_fl" length="1672.5803418670207" freespeed="35.0" capacity="999.0" permlanes="1.0" oneway="1" modes="uam" >
			<attributes>
				<attribute name="type" class="java.lang.String" >uam_horizontal</attribute>
			</attributes>
		</link>
		<link id="uam_hl-uam_wp_2_fl-uam_wp_0_fl" from="uam_wp_2_fl" to="uam_wp_0_fl" length="1515.7588858390375" freespeed="35.0" capacity="999.0" permlanes="1.0" oneway="1" modes="uam" >
			<attributes>
				<attribute name="type" class="java.lang.String" >uam_horizontal</attribute>
			</attributes>
		</link>
		<link id="uam_hl-uam_wp_2_fl-uam_wp_1_fl" from="uam_wp_2_fl" to="uam_wp_1_fl" length="1672.5803418670207" freespeed="35.0" capacity="999.0" permlanes="1.0" oneway="1" modes="uam" >
			<attributes>
				<attribute name="type" class="java.lang.String" >uam_horizontal</attribute>
			</attributes>
		</link>
		<link id="uam_hl-uam_wp_2_fl-uam_wp_3_fl" from="uam_wp_2_fl" to="uam_wp_3_fl" length="5034.888280786377" freespeed="35.0" capacity="999.0" permlanes="1.0" oneway="1" modes="uam" >
			<attributes>
				<attribute name="type" class="java.lang.String" >uam_horizontal</attribute>
			</attributes>
		</link>
		<link id="uam_hl-uam_wp_3_fl-uam_wp_2_fl" from="uam_wp_3_fl" to="uam_wp_2_fl" length="5034.888280786377" freespeed="35.0" capacity="999.0" permlanes="1.0" oneway="1" modes="uam" >
			<attributes>
				<attribute name="type" class="java.lang.String" >uam_horizontal</attribute>
			</attributes>
		</link>
		<link id="uam_hl-uam_wp_3_fl-uam_wp_4_fl" from="uam_wp_3_fl" to="uam_wp_4_fl" length="1672.5803418670207" freespeed="35.0" capacity="999.0" permlanes="1.0" oneway="1" modes="uam" >
			<attributes>
				<attribute name="type" class="java.lang.String" >uam_horizontal</attribute>
			</attributes>
		</link>
		<link id="uam_hl-uam_wp_3_fl-uam_wp_5_fl" from="uam_wp_3_fl" to="uam_wp_5_fl" length="1515.7588858390375" freespeed="35.0" capacity="999.0" permlanes="1.0" oneway="1" modes="uam" >
			<attributes>
				<attribute name="type" class="java.lang.String" >uam_horizontal</attribute>
			</attributes>
		</link>
		<link id="uam_hl-uam_wp_4_fl-uam_wp_3_fl" from="uam_wp_4_fl" to="uam_wp_3_fl" length="1672.5803418670207" freespeed="35.0" capacity="999.0" permlanes="1.0" oneway="1" modes="uam" >
			<attributes>
				<attribute name="type" class="java.lang.String" >uam_horizontal</attribute>
			</attributes>
		</link>
		<link id="uam_hl-uam_wp_5_fl-uam_wp_3_fl" from="uam_wp_5_fl" to="uam_wp_3_fl" length="1515.7588858390375" freespeed="35.0" capacity="999.0" permlanes="1.0" oneway="1" modes="uam" >
			<attributes>
				<attribute name="type" class="java.lang.String" >uam_horizontal</attribute>
			</attributes>
		</link>
		<link id="uam_sl-uam_st_A_fa-uam_st_A_ga" from="uam_st_A_fa" to="uam_st_A_ga" length="1.0" freespeed="35.0" capacity="999.0" permlanes="1.0" oneway="1" modes="uam,car" >
			<attributes>
				<attribute name="type" class="java.lang.String" >uam_vertical</attribute>
			</attributes>
		</link>
		<link id="uam_sl-uam_st_A_ga-uam_st_A_fa" from="uam_st_A_ga" to="uam_st_A_fa" length="1.0" freespeed="35.0" capacity="999.0" permlanes="1.0" oneway="1" modes="uam,car" >
			<attributes>
				<attribute name="type" class="java.lang.String" >uam_vertical</attribute>
			</attributes>
		</link>
		<link id="uam_sl-uam_st_B_fa-uam_st_B_ga" from="uam_st_B_fa" to="uam_st_B_ga" length="1.0" freespeed="35.0" capacity="999.0" permlanes="1.0" oneway="1" modes="uam,car" >
			<attributes>
				<attribute name="type" class="java.lang.String" >uam_vertical</attribute>
			</attributes>
		</link>
		<link id="uam_sl-uam_st_B_ga-uam_st_B_fa" from="uam_st_B_ga" to="uam_st_B_fa" length="1.0" freespeed="35.0" capacity="999.0" permlanes="1.0" oneway="1" modes="uam,car" >
			<attributes>
				<attribute name="type" class="java.lang.String" >uam_vertical</attribute>
			</attributes>
		</link>
		<link id="uam_sl-uam_st_C_fa-uam_st_C_ga" from="uam_st_C_fa" to="uam_st_C_ga" length="1.0" freespeed="35.0" capacity="999.0" permlanes="1.0" oneway="1" modes="uam,car" >
			<attributes>
				<attribute name="type" class="java.lang.String" >uam_vertical</attribute>
			</attributes>
		</link>
		<link id="uam_sl-uam_st_C_ga-uam_st_C_fa" from="uam_st_C_ga" to="uam_st_C_fa" length="1.0" freespeed="35.0" capacity="999.0" permlanes="1.0" oneway="1" modes="uam,car" >
			<attributes>
				<attribute name="type" class="java.lang.String" >uam_vertical</attribute>
			</attributes>
		</link>
		<link id="uam_sl-uam_st_D_fa-uam_st_D_ga" from="uam_st_D_fa" to="uam_st_D_ga" length="1.0" freespeed="35.0" capacity="999.0" permlanes="1.0" oneway="1" modes="uam,car" >
			<attributes>
				<attribute name="type" class="java.lang.String" >uam_vertical</attribute>
			</attributes>
		</link>
		<link id="uam_sl-uam_st_D_ga-uam_st_D_fa" from="uam_st_D_ga" to="uam_st_D_fa" length="1.0" freespeed="35.0" capacity="999.0" permlanes="1.0" oneway="1" modes="uam,car" >
			<attributes>
				<attribute name="type" class="java.lang.String" >uam_vertical</attribute>
			</attributes>
		</link>
		<link id="uam_vl-uam_st_A_fa-uam_wp_0_fl" from="uam_st_A_fa" to="uam_wp_0_fl" length="600.0" freespeed="35.0" capacity="999.0" permlanes="1.0" oneway="1" modes="uam" >
			<attributes>
				<attribute name="type" class="java.lang.String" >uam_vertical</attribute>
			</attributes>
		</link>
		<link id="uam_vl-uam_st_B_fa-uam_wp_1_fl" from="uam_st_B_fa" to="uam_wp_1_fl" length="600.0" freespeed="35.0" capacity="999.0" permlanes="1.0" oneway="1" modes="uam" >
			<attributes>
				<attribute name="type" class="java.lang.String" >uam_vertical</attribute>
			</attributes>
		</link>
		<link id="uam_vl-uam_st_C_fa-uam_wp_4_fl" from="uam_st_C_fa" to="uam_wp_4_fl" length="600.0" freespeed="35.0" capacity="999.0" permlanes="1.0" oneway="1" modes="uam" >
			<attributes>
				<attribute name="type" class="java.lang.String" >uam_vertical</attribute>
			</attributes>
		</link>
		<link id="uam_vl-uam_st_D_fa-uam_wp_5_fl" from="uam_st_D_fa" to="uam_wp_5_fl" length="600.0" freespeed="35.0" capacity="999.0" permlanes="1.0" oneway="1" modes="uam" >
			<attributes>
				<attribute name="type" class="java.lang.String" >uam_vertical</attribute>
			</attributes>
		</link>
		<link id="uam_vl-uam_wp_0_fl-uam_st_A_fa" from="uam_wp_0_fl" to="uam_st_A_fa" length="600.0" freespeed="35.0" capacity="999.0" permlanes="1.0" oneway="1" modes="uam" >
			<attributes>
				<attribute name="type" class="java.lang.String" >uam_vertical</attribute>
			</attributes>
		</link>
		<link id="uam_vl-uam_wp_1_fl-uam_st_B_fa" from="uam_wp_1_fl" to="uam_st_B_fa" length="600.0" freespeed="35.0" capacity="999.0" permlanes="1.0" oneway="1" modes="uam" >
			<attributes>
				<attribute name="type" class="java.lang.String" >uam_vertical</attribute>
			</attributes>
		</link>
		<link id="uam_vl-uam_wp_4_fl-uam_st_C_fa" from="uam_wp_4_fl" to="uam_st_C_fa" length="600.0" freespeed="35.0" capacity="999.0" permlanes="1.0" oneway="1" modes="uam" >
			<attributes>
				<attribute name="type" class="java.lang.String" >uam_vertical</attribute>
			</attributes>
		</link>
		<link id="uam_vl-uam_wp_5_fl-uam_st_D_fa" from="uam_wp_5_fl" to="uam_st_D_fa" length="600.0" freespeed="35.0" capacity="999.0" permlanes="1.0" oneway="1" modes="uam" >
			<attributes>
				<attribute name="type" class="java.lang.String" >uam_vertical</attribute>
			</attributes>
		</link>
	</links>

<!-- ====================================================================== -->

</network>
